/*--------------------------------*- C++ -*----------------------------------*\
  =========                 |
  \\      /  F ield         | OpenFOAM: The Open Source CFD Toolbox
   \\    /   O peration     | Website:  https://openfoam.org
    \\  /    A nd           | Version:  7
     \\/     M anipulation  |
\*---------------------------------------------------------------------------*/
FoamFile
{
    version     2.0;
    format      ascii;
    class       featureEdgeMesh;
    location    "constant/triSurface";
    object      structure.eMesh;
}
// * * * * * * * * * * * * * * * * * * * * * * * * * * * * * * * * * * * * * //


// points:

1192
(
(0.000150000007125 4.99999987369e-05 9.99999974738e-05)
(0.000150000007125 4.99999987369e-05 0.000199999994948)
(0.000150000007125 -4.99999987369e-05 9.99999974738e-05)
(0.000150000007125 -4.99999987369e-05 0.000199999994948)
(-0.000150000007125 -4.99999987369e-05 9.99999974738e-05)
(-0.000150000007125 -4.99999987369e-05 0.000199999994948)
(-0.000150000007125 4.99999987369e-05 9.99999974738e-05)
(-0.000150000007125 4.99999987369e-05 0.000199999994948)
(7.20000025467e-05 4.99999987369e-05 9.99999974738e-05)
(7.20000025467e-05 4.99999987369e-05 0.000199999994948)
(7.20000025467e-05 -4.99999987369e-05 9.99999974738e-05)
(7.20000025467e-05 -4.99999987369e-05 0.000199999994948)
(2.53950001934e-05 -4.99999987369e-05 9.99999974738e-05)
(2.53950001934e-05 -4.99999987369e-05 0.000199999994948)
(2.53449998127e-05 -4.99999987369e-05 9.99999974738e-05)
(2.53449998127e-05 -4.99999987369e-05 0.000199999994948)
(2.52900008491e-05 -4.99999987369e-05 9.99999974738e-05)
(2.52900008491e-05 -4.99999987369e-05 0.000199999994948)
(2.52400004683e-05 -4.9995000154e-05 9.99999974738e-05)
(2.52400004683e-05 -4.9995000154e-05 0.000199999994948)
(2.51900000876e-05 -4.9995000154e-05 9.99999974738e-05)
(2.51900000876e-05 -4.9995000154e-05 0.000199999994948)
(2.5134999305e-05 -4.99900015711e-05 9.99999974738e-05)
(2.5134999305e-05 -4.99900015711e-05 0.000199999994948)
(2.50850007433e-05 -4.99849993503e-05 9.99999974738e-05)
(2.50850007433e-05 -4.99849993503e-05 0.000199999994948)
(2.50350003625e-05 -4.99800007674e-05 9.99999974738e-05)
(2.50350003625e-05 -4.99800007674e-05 0.000199999994948)
(2.497999958e-05 -4.99699999637e-05 9.99999974738e-05)
(2.497999958e-05 -4.99699999637e-05 0.000199999994948)
(2.49299991992e-05 -4.99650013808e-05 9.99999974738e-05)
(2.49299991992e-05 -4.99650013808e-05 0.000199999994948)
(2.48800006375e-05 -4.9955000577e-05 9.99999974738e-05)
(2.48800006375e-05 -4.9955000577e-05 0.000199999994948)
(2.48300002568e-05 -4.99449997733e-05 9.99999974738e-05)
(2.48300002568e-05 -4.99449997733e-05 0.000199999994948)
(2.4779999876e-05 -4.99349989695e-05 9.99999974738e-05)
(2.4779999876e-05 -4.99349989695e-05 0.000199999994948)
(2.47249990935e-05 -4.99250018038e-05 9.99999974738e-05)
(2.47249990935e-05 -4.99250018038e-05 0.000199999994948)
(2.46750005317e-05 -4.9915001e-05 9.99999974738e-05)
(2.46750005317e-05 -4.9915001e-05 0.000199999994948)
(2.4625000151e-05 -4.99000016134e-05 9.99999974738e-05)
(2.4625000151e-05 -4.99000016134e-05 0.000199999994948)
(2.45749997703e-05 -4.98849985888e-05 9.99999974738e-05)
(2.45749997703e-05 -4.98849985888e-05 0.000199999994948)
(2.45249993895e-05 -4.98699992022e-05 9.99999974738e-05)
(2.45249993895e-05 -4.98699992022e-05 0.000199999994948)
(2.44799994107e-05 -4.98549998156e-05 9.99999974738e-05)
(2.44799994107e-05 -4.98549998156e-05 0.000199999994948)
(2.4430000849e-05 -4.9840000429e-05 9.99999974738e-05)
(2.4430000849e-05 -4.9840000429e-05 0.000199999994948)
(2.43800004682e-05 -4.98250010423e-05 9.99999974738e-05)
(2.43800004682e-05 -4.98250010423e-05 0.000199999994948)
(2.43300000875e-05 -4.98049994349e-05 9.99999974738e-05)
(2.43300000875e-05 -4.98049994349e-05 0.000199999994948)
(2.42850001086e-05 -4.97850014654e-05 9.99999974738e-05)
(2.42850001086e-05 -4.97850014654e-05 0.000199999994948)
(2.42349997279e-05 -4.97649998579e-05 9.99999974738e-05)
(2.42349997279e-05 -4.97649998579e-05 0.000199999994948)
(2.41899997491e-05 -4.97449982504e-05 9.99999974738e-05)
(2.41899997491e-05 -4.97449982504e-05 0.000199999994948)
(2.41399993683e-05 -4.97250002809e-05 9.99999974738e-05)
(2.41399993683e-05 -4.97250002809e-05 0.000199999994948)
(2.40949993895e-05 -4.97049986734e-05 9.99999974738e-05)
(2.40949993895e-05 -4.97049986734e-05 0.000199999994948)
(2.40450008278e-05 -4.9679998483e-05 9.99999974738e-05)
(2.40450008278e-05 -4.9679998483e-05 0.000199999994948)
(2.40000008489e-05 -4.96549982927e-05 9.99999974738e-05)
(2.40000008489e-05 -4.96549982927e-05 0.000199999994948)
(2.395500087e-05 -4.96300017403e-05 9.99999974738e-05)
(2.395500087e-05 -4.96300017403e-05 0.000199999994948)
(2.39100008912e-05 -4.96050015499e-05 9.99999974738e-05)
(2.39100008912e-05 -4.96050015499e-05 0.000199999994948)
(2.38649990933e-05 -4.95800013596e-05 9.99999974738e-05)
(2.38649990933e-05 -4.95800013596e-05 0.000199999994948)
(2.38199991145e-05 -4.95550011692e-05 9.99999974738e-05)
(2.38199991145e-05 -4.95550011692e-05 0.000199999994948)
(2.37749991356e-05 -4.9524998758e-05 9.99999974738e-05)
(2.37749991356e-05 -4.9524998758e-05 0.000199999994948)
(2.37349995587e-05 -4.94999985676e-05 9.99999974738e-05)
(2.37349995587e-05 -4.94999985676e-05 0.000199999994948)
(2.36899995798e-05 -4.94699997944e-05 9.99999974738e-05)
(2.36899995798e-05 -4.94699997944e-05 0.000199999994948)
(2.36500000028e-05 -4.94400010211e-05 9.99999974738e-05)
(2.36500000028e-05 -4.94400010211e-05 0.000199999994948)
(2.3605000024e-05 -4.94099986099e-05 9.99999974738e-05)
(2.3605000024e-05 -4.94099986099e-05 0.000199999994948)
(2.3565000447e-05 -4.93799998367e-05 9.99999974738e-05)
(2.3565000447e-05 -4.93799998367e-05 0.000199999994948)
(2.352500087e-05 -4.93449988426e-05 9.99999974738e-05)
(2.352500087e-05 -4.93449988426e-05 0.000199999994948)
(2.3484999474e-05 -4.93150000693e-05 9.99999974738e-05)
(2.3484999474e-05 -4.93150000693e-05 0.000199999994948)
(2.3444999897e-05 -4.92799990752e-05 9.99999974738e-05)
(2.3444999897e-05 -4.92799990752e-05 0.000199999994948)
(2.34050003201e-05 -4.92450017191e-05 9.99999974738e-05)
(2.34050003201e-05 -4.92450017191e-05 0.000199999994948)
(2.3369999326e-05 -4.9210000725e-05 9.99999974738e-05)
(2.3369999326e-05 -4.9210000725e-05 0.000199999994948)
(2.3329999749e-05 -4.91749997309e-05 9.99999974738e-05)
(2.3329999749e-05 -4.91749997309e-05 0.000199999994948)
(2.3290000172e-05 -4.91399987368e-05 9.99999974738e-05)
(2.3290000172e-05 -4.91399987368e-05 0.000199999994948)
(2.32549991779e-05 -4.91050013807e-05 9.99999974738e-05)
(2.32549991779e-05 -4.91050013807e-05 0.000199999994948)
(2.32200000028e-05 -4.90650018037e-05 9.99999974738e-05)
(2.32200000028e-05 -4.90650018037e-05 0.000199999994948)
(2.31850008277e-05 -4.90300008096e-05 9.99999974738e-05)
(2.31850008277e-05 -4.90300008096e-05 0.000199999994948)
(2.31499998335e-05 -4.89900012326e-05 9.99999974738e-05)
(2.31499998335e-05 -4.89900012326e-05 0.000199999994948)
(2.31150006584e-05 -4.89500016556e-05 9.99999974738e-05)
(2.31150006584e-05 -4.89500016556e-05 0.000199999994948)
(2.30799996643e-05 -4.89099984406e-05 9.99999974738e-05)
(2.30799996643e-05 -4.89099984406e-05 0.000199999994948)
(2.30500008911e-05 -4.88699988637e-05 9.99999974738e-05)
(2.30500008911e-05 -4.88699988637e-05 0.000199999994948)
(2.30200002989e-05 -4.88299992867e-05 9.99999974738e-05)
(2.30200002989e-05 -4.88299992867e-05 0.000199999994948)
(2.29849993048e-05 -4.87899997097e-05 9.99999974738e-05)
(2.29849993048e-05 -4.87899997097e-05 0.000199999994948)
(2.29550005315e-05 -4.87500001327e-05 9.99999974738e-05)
(2.29550005315e-05 -4.87500001327e-05 0.000199999994948)
(2.29249999393e-05 -4.87049983349e-05 9.99999974738e-05)
(2.29249999393e-05 -4.87049983349e-05 0.000199999994948)
(2.2894999347e-05 -4.8660000175e-05 9.99999974738e-05)
(2.2894999347e-05 -4.8660000175e-05 0.000199999994948)
(2.28699991567e-05 -4.8620000598e-05 9.99999974738e-05)
(2.28699991567e-05 -4.8620000598e-05 0.000199999994948)
(2.28400003834e-05 -4.85749988002e-05 9.99999974738e-05)
(2.28400003834e-05 -4.85749988002e-05 0.000199999994948)
(2.28150001931e-05 -4.85300006403e-05 9.99999974738e-05)
(2.28150001931e-05 -4.85300006403e-05 0.000199999994948)
(2.27900000027e-05 -4.84849988425e-05 9.99999974738e-05)
(2.27900000027e-05 -4.84849988425e-05 0.000199999994948)
(2.27649998124e-05 -4.84400006826e-05 9.99999974738e-05)
(2.27649998124e-05 -4.84400006826e-05 0.000199999994948)
(2.2739999622e-05 -4.83949988848e-05 9.99999974738e-05)
(2.2739999622e-05 -4.83949988848e-05 0.000199999994948)
(2.27149994316e-05 -4.83500007249e-05 9.99999974738e-05)
(2.27149994316e-05 -4.83500007249e-05 0.000199999994948)
(2.26899992413e-05 -4.83049989271e-05 9.99999974738e-05)
(2.26899992413e-05 -4.83049989271e-05 0.000199999994948)
(2.26699994528e-05 -4.82549985463e-05 9.99999974738e-05)
(2.26699994528e-05 -4.82549985463e-05 0.000199999994948)
(2.26499996643e-05 -4.82100003865e-05 9.99999974738e-05)
(2.26499996643e-05 -4.82100003865e-05 0.000199999994948)
(2.26299998758e-05 -4.81600000057e-05 9.99999974738e-05)
(2.26299998758e-05 -4.81600000057e-05 0.000199999994948)
(2.26100000873e-05 -4.81149982079e-05 9.99999974738e-05)
(2.26100000873e-05 -4.81149982079e-05 0.000199999994948)
(2.25900002988e-05 -4.80650014651e-05 9.99999974738e-05)
(2.25900002988e-05 -4.80650014651e-05 0.000199999994948)
(2.25700005103e-05 -4.80150010844e-05 9.99999974738e-05)
(2.25700005103e-05 -4.80150010844e-05 0.000199999994948)
(2.25549993047e-05 -4.79699992866e-05 9.99999974738e-05)
(2.25549993047e-05 -4.79699992866e-05 0.000199999994948)
(2.25399999181e-05 -4.79199989059e-05 9.99999974738e-05)
(2.25399999181e-05 -4.79199989059e-05 0.000199999994948)
(2.25250005315e-05 -4.78699985251e-05 9.99999974738e-05)
(2.25250005315e-05 -4.78699985251e-05 0.000199999994948)
(2.25099993258e-05 -4.78200017824e-05 9.99999974738e-05)
(2.25099993258e-05 -4.78200017824e-05 0.000199999994948)
(2.24949999392e-05 -4.77700014017e-05 9.99999974738e-05)
(2.24949999392e-05 -4.77700014017e-05 0.000199999994948)
(2.24800005526e-05 -4.77200010209e-05 9.99999974738e-05)
(2.24800005526e-05 -4.77200010209e-05 0.000199999994948)
(2.24699997489e-05 -4.76700006402e-05 9.99999974738e-05)
(2.24699997489e-05 -4.76700006402e-05 0.000199999994948)
(2.24600007641e-05 -4.76200002595e-05 9.99999974738e-05)
(2.24600007641e-05 -4.76200002595e-05 0.000199999994948)
(2.24499999604e-05 -4.75699998788e-05 9.99999974738e-05)
(2.24499999604e-05 -4.75699998788e-05 0.000199999994948)
(2.24399991566e-05 -4.75150009152e-05 9.99999974738e-05)
(2.24399991566e-05 -4.75150009152e-05 0.000199999994948)
(1.5435000023e-05 -7.48499996917e-06 9.99999974738e-05)
(1.5435000023e-05 -7.48499996917e-06 0.000199999994948)
(1.54249992192e-05 -7.43000009606e-06 9.99999974738e-05)
(1.54249992192e-05 -7.43000009606e-06 0.000199999994948)
(1.54150002345e-05 -7.38000017009e-06 9.99999974738e-05)
(1.54150002345e-05 -7.38000017009e-06 0.000199999994948)
(1.54049994308e-05 -7.32999978936e-06 9.99999974738e-05)
(1.54049994308e-05 -7.32999978936e-06 0.000199999994948)
(1.53900000441e-05 -7.27999986339e-06 9.99999974738e-05)
(1.53900000441e-05 -7.27999986339e-06 0.000199999994948)
(1.53799992404e-05 -7.22999993741e-06 9.99999974738e-05)
(1.53799992404e-05 -7.22999993741e-06 0.000199999994948)
(1.53649998538e-05 -7.18000001143e-06 9.99999974738e-05)
(1.53649998538e-05 -7.18000001143e-06 0.000199999994948)
(1.53500004672e-05 -7.13000008545e-06 9.99999974738e-05)
(1.53500004672e-05 -7.13000008545e-06 0.000199999994948)
(1.53349992615e-05 -7.08000015948e-06 9.99999974738e-05)
(1.53349992615e-05 -7.08000015948e-06 0.000199999994948)
(1.53199998749e-05 -7.02999977875e-06 9.99999974738e-05)
(1.53199998749e-05 -7.02999977875e-06 0.000199999994948)
(1.53000000864e-05 -6.9849997999e-06 9.99999974738e-05)
(1.53000000864e-05 -6.9849997999e-06 0.000199999994948)
(1.52850006998e-05 -6.93499987392e-06 9.99999974738e-05)
(1.52850006998e-05 -6.93499987392e-06 0.000199999994948)
(1.52649990923e-05 -6.88499994794e-06 9.99999974738e-05)
(1.52649990923e-05 -6.88499994794e-06 0.000199999994948)
(1.52450002133e-05 -6.83999996909e-06 9.99999974738e-05)
(1.52450002133e-05 -6.83999996909e-06 0.000199999994948)
(1.52250004248e-05 -6.79000004311e-06 9.99999974738e-05)
(1.52250004248e-05 -6.79000004311e-06 0.000199999994948)
(1.52049997268e-05 -6.74500006426e-06 9.99999974738e-05)
(1.52049997268e-05 -6.74500006426e-06 0.000199999994948)
(1.5180000446e-05 -6.69500013828e-06 9.99999974738e-05)
(1.5180000446e-05 -6.69500013828e-06 0.000199999994948)
(1.5159999748e-05 -6.65000015942e-06 9.99999974738e-05)
(1.5159999748e-05 -6.65000015942e-06 0.000199999994948)
(1.51349995576e-05 -6.60500018057e-06 9.99999974738e-05)
(1.51349995576e-05 -6.60500018057e-06 0.000199999994948)
(1.51100002768e-05 -6.56000020172e-06 9.99999974738e-05)
(1.51100002768e-05 -6.56000020172e-06 0.000199999994948)
(1.50850000864e-05 -6.51500022286e-06 9.99999974738e-05)
(1.50850000864e-05 -6.51500022286e-06 0.000199999994948)
(1.5059999896e-05 -6.46999978926e-06 9.99999974738e-05)
(1.5059999896e-05 -6.46999978926e-06 0.000199999994948)
(1.50349997057e-05 -6.42499981041e-06 9.99999974738e-05)
(1.50349997057e-05 -6.42499981041e-06 0.000199999994948)
(1.50050000229e-05 -6.37999983155e-06 9.99999974738e-05)
(1.50050000229e-05 -6.37999983155e-06 0.000199999994948)
(1.49750003402e-05 -6.33999979982e-06 9.99999974738e-05)
(1.49750003402e-05 -6.33999979982e-06 0.000199999994948)
(1.49500001498e-05 -6.29499982097e-06 9.99999974738e-05)
(1.49500001498e-05 -6.29499982097e-06 0.000199999994948)
(1.49199995576e-05 -6.24999984211e-06 9.99999974738e-05)
(1.49199995576e-05 -6.24999984211e-06 0.000199999994948)
(1.48850003825e-05 -6.20999981038e-06 9.99999974738e-05)
(1.48850003825e-05 -6.20999981038e-06 0.000199999994948)
(1.48549997903e-05 -6.16999977865e-06 9.99999974738e-05)
(1.48549997903e-05 -6.16999977865e-06 0.000199999994948)
(1.48250001075e-05 -6.13000020167e-06 9.99999974738e-05)
(1.48250001075e-05 -6.13000020167e-06 0.000199999994948)
(1.47900000229e-05 -6.09000016993e-06 9.99999974738e-05)
(1.47900000229e-05 -6.09000016993e-06 0.000199999994948)
(1.47600003402e-05 -6.0500001382e-06 9.99999974738e-05)
(1.47600003402e-05 -6.0500001382e-06 0.000199999994948)
(1.47250002556e-05 -6.01000010647e-06 9.99999974738e-05)
(1.47250002556e-05 -6.01000010647e-06 0.000199999994948)
(1.4690000171e-05 -5.97000007474e-06 9.99999974738e-05)
(1.4690000171e-05 -5.97000007474e-06 0.000199999994948)
(1.46550000863e-05 -5.93499999013e-06 9.99999974738e-05)
(1.46550000863e-05 -5.93499999013e-06 0.000199999994948)
(1.46200000017e-05 -5.8949999584e-06 9.99999974738e-05)
(1.46200000017e-05 -5.8949999584e-06 0.000199999994948)
(1.45800004248e-05 -5.85999987379e-06 9.99999974738e-05)
(1.45800004248e-05 -5.85999987379e-06 0.000199999994948)
(1.45450003401e-05 -5.82499978918e-06 9.99999974738e-05)
(1.45450003401e-05 -5.82499978918e-06 0.000199999994948)
(1.45049998537e-05 -5.79000015932e-06 9.99999974738e-05)
(1.45049998537e-05 -5.79000015932e-06 0.000199999994948)
(1.44699997691e-05 -5.75500007471e-06 9.99999974738e-05)
(1.44699997691e-05 -5.75500007471e-06 0.000199999994948)
(1.44300001921e-05 -5.71999999011e-06 9.99999974738e-05)
(1.44300001921e-05 -5.71999999011e-06 0.000199999994948)
(1.43899997056e-05 -5.6849999055e-06 9.99999974738e-05)
(1.43899997056e-05 -5.6849999055e-06 0.000199999994948)
(1.43500001286e-05 -5.65500022276e-06 9.99999974738e-05)
(1.43500001286e-05 -5.65500022276e-06 0.000199999994948)
(1.43099996421e-05 -5.62000013815e-06 9.99999974738e-05)
(1.43099996421e-05 -5.62000013815e-06 0.000199999994948)
(1.42649996633e-05 -5.59000000067e-06 9.99999974738e-05)
(1.42649996633e-05 -5.59000000067e-06 0.000199999994948)
(1.42250000863e-05 -5.55999986318e-06 9.99999974738e-05)
(1.42250000863e-05 -5.55999986318e-06 0.000199999994948)
(1.41849995998e-05 -5.53000018044e-06 9.99999974738e-05)
(1.41849995998e-05 -5.53000018044e-06 0.000199999994948)
(1.4139999621e-05 -5.50000004296e-06 9.99999974738e-05)
(1.4139999621e-05 -5.50000004296e-06 0.000199999994948)
(1.40949996421e-05 -5.47499985259e-06 9.99999974738e-05)
(1.40949996421e-05 -5.47499985259e-06 0.000199999994948)
(1.40550000651e-05 -5.44500016986e-06 9.99999974738e-05)
(1.40550000651e-05 -5.44500016986e-06 0.000199999994948)
(1.40100000863e-05 -5.41999997949e-06 9.99999974738e-05)
(1.40100000863e-05 -5.41999997949e-06 0.000199999994948)
(1.39650001074e-05 -5.39499978913e-06 9.99999974738e-05)
(1.39650001074e-05 -5.39499978913e-06 0.000199999994948)
(1.39200001286e-05 -5.37000005352e-06 9.99999974738e-05)
(1.39200001286e-05 -5.37000005352e-06 0.000199999994948)
(1.38750001497e-05 -5.34499986315e-06 9.99999974738e-05)
(1.38750001497e-05 -5.34499986315e-06 0.000199999994948)
(1.3824999769e-05 -5.32000012754e-06 9.99999974738e-05)
(1.3824999769e-05 -5.32000012754e-06 0.000199999994948)
(1.37799997901e-05 -5.29499993718e-06 9.99999974738e-05)
(1.37799997901e-05 -5.29499993718e-06 0.000199999994948)
(1.37349998113e-05 -5.27500014869e-06 9.99999974738e-05)
(1.37349998113e-05 -5.27500014869e-06 0.000199999994948)
(1.368500034e-05 -5.25499990545e-06 9.99999974738e-05)
(1.368500034e-05 -5.25499990545e-06 0.000199999994948)
(1.36400003612e-05 -5.23500011695e-06 9.99999974738e-05)
(1.36400003612e-05 -5.23500011695e-06 0.000199999994948)
(1.35899999805e-05 -5.21499987371e-06 9.99999974738e-05)
(1.35899999805e-05 -5.21499987371e-06 0.000199999994948)
(1.35450000016e-05 -5.19500008522e-06 9.99999974738e-05)
(1.35450000016e-05 -5.19500008522e-06 0.000199999994948)
(1.34949996209e-05 -5.17499984198e-06 9.99999974738e-05)
(1.34949996209e-05 -5.17499984198e-06 0.000199999994948)
(1.34450001497e-05 -5.16000000061e-06 9.99999974738e-05)
(1.34450001497e-05 -5.16000000061e-06 0.000199999994948)
(1.33949997689e-05 -5.14500015925e-06 9.99999974738e-05)
(1.33949997689e-05 -5.14500015925e-06 0.000199999994948)
(1.33450002977e-05 -5.12999986313e-06 9.99999974738e-05)
(1.33450002977e-05 -5.12999986313e-06 0.000199999994948)
(1.3294999917e-05 -5.11500002176e-06 9.99999974738e-05)
(1.3294999917e-05 -5.11500002176e-06 0.000199999994948)
(1.32450004457e-05 -5.10000018039e-06 9.99999974738e-05)
(1.32450004457e-05 -5.10000018039e-06 0.000199999994948)
(1.3195000065e-05 -5.08499988428e-06 9.99999974738e-05)
(1.3195000065e-05 -5.08499988428e-06 0.000199999994948)
(1.31449996843e-05 -5.07499999003e-06 9.99999974738e-05)
(1.31449996843e-05 -5.07499999003e-06 0.000199999994948)
(1.30950002131e-05 -5.06500009578e-06 9.99999974738e-05)
(1.30950002131e-05 -5.06500009578e-06 0.000199999994948)
(1.30449998323e-05 -5.05500020154e-06 9.99999974738e-05)
(1.30449998323e-05 -5.05500020154e-06 0.000199999994948)
(1.29950003611e-05 -5.04499985254e-06 9.99999974738e-05)
(1.29950003611e-05 -5.04499985254e-06 0.000199999994948)
(1.29449999804e-05 -5.0349999583e-06 9.99999974738e-05)
(1.29449999804e-05 -5.0349999583e-06 0.000199999994948)
(1.28900001073e-05 -5.03000001117e-06 9.99999974738e-05)
(1.28900001073e-05 -5.03000001117e-06 0.000199999994948)
(1.28399997266e-05 -5.02000011693e-06 9.99999974738e-05)
(1.28399997266e-05 -5.02000011693e-06 0.000199999994948)
(1.27900002553e-05 -5.01500016981e-06 9.99999974738e-05)
(1.27900002553e-05 -5.01500016981e-06 0.000199999994948)
(1.27399998746e-05 -5.01000022268e-06 9.99999974738e-05)
(1.27399998746e-05 -5.01000022268e-06 0.000199999994948)
(1.26850000015e-05 -5.00499982081e-06 9.99999974738e-05)
(1.26850000015e-05 -5.00499982081e-06 0.000199999994948)
(1.26349996208e-05 -5.00499982081e-06 9.99999974738e-05)
(1.26349996208e-05 -5.00499982081e-06 0.000199999994948)
(1.25850001496e-05 -4.99999987369e-06 9.99999974738e-05)
(1.25850001496e-05 -4.99999987369e-06 0.000199999994948)
(1.25300002765e-05 -4.99999987369e-06 9.99999974738e-05)
(1.25300002765e-05 -4.99999987369e-06 0.000199999994948)
(1.24799998957e-05 -4.99999987369e-06 9.99999974738e-05)
(1.24799998957e-05 -4.99999987369e-06 0.000199999994948)
(-1.31599999804e-05 -4.99999987369e-06 9.99999974738e-05)
(-1.31599999804e-05 -4.99999987369e-06 0.000199999994948)
(-1.32100003611e-05 -4.99999987369e-06 9.99999974738e-05)
(-1.32100003611e-05 -4.99999987369e-06 0.000199999994948)
(-1.32650002342e-05 -4.99999987369e-06 9.99999974738e-05)
(-1.32650002342e-05 -4.99999987369e-06 0.000199999994948)
(-1.33149997055e-05 -5.00499982081e-06 9.99999974738e-05)
(-1.33149997055e-05 -5.00499982081e-06 0.000199999994948)
(-1.33650000862e-05 -5.00499982081e-06 9.99999974738e-05)
(-1.33650000862e-05 -5.00499982081e-06 0.000199999994948)
(-1.34149995574e-05 -5.01000022268e-06 9.99999974738e-05)
(-1.34149995574e-05 -5.01000022268e-06 0.000199999994948)
(-1.347000034e-05 -5.01500016981e-06 9.99999974738e-05)
(-1.347000034e-05 -5.01500016981e-06 0.000199999994948)
(-1.35199998113e-05 -5.02000011693e-06 9.99999974738e-05)
(-1.35199998113e-05 -5.02000011693e-06 0.000199999994948)
(-1.3570000192e-05 -5.03000001117e-06 9.99999974738e-05)
(-1.3570000192e-05 -5.03000001117e-06 0.000199999994948)
(-1.36199996632e-05 -5.0349999583e-06 9.99999974738e-05)
(-1.36199996632e-05 -5.0349999583e-06 0.000199999994948)
(-1.36750004458e-05 -5.04499985254e-06 9.99999974738e-05)
(-1.36750004458e-05 -5.04499985254e-06 0.000199999994948)
(-1.3724999917e-05 -5.05500020154e-06 9.99999974738e-05)
(-1.3724999917e-05 -5.05500020154e-06 0.000199999994948)
(-1.37750002978e-05 -5.06500009578e-06 9.99999974738e-05)
(-1.37750002978e-05 -5.06500009578e-06 0.000199999994948)
(-1.3824999769e-05 -5.07499999003e-06 9.99999974738e-05)
(-1.3824999769e-05 -5.07499999003e-06 0.000199999994948)
(-1.38750001497e-05 -5.08499988428e-06 9.99999974738e-05)
(-1.38750001497e-05 -5.08499988428e-06 0.000199999994948)
(-1.39249996209e-05 -5.10000018039e-06 9.99999974738e-05)
(-1.39249996209e-05 -5.10000018039e-06 0.000199999994948)
(-1.39750000017e-05 -5.11500002176e-06 9.99999974738e-05)
(-1.39750000017e-05 -5.11500002176e-06 0.000199999994948)
(-1.40250003824e-05 -5.12499991601e-06 9.99999974738e-05)
(-1.40250003824e-05 -5.12499991601e-06 0.000199999994948)
(-1.40749998536e-05 -5.14500015925e-06 9.99999974738e-05)
(-1.40749998536e-05 -5.14500015925e-06 0.000199999994948)
(-1.41199998325e-05 -5.16000000061e-06 9.99999974738e-05)
(-1.41199998325e-05 -5.16000000061e-06 0.000199999994948)
(-1.41700002132e-05 -5.17499984198e-06 9.99999974738e-05)
(-1.41700002132e-05 -5.17499984198e-06 0.000199999994948)
(-1.42199996844e-05 -5.19500008522e-06 9.99999974738e-05)
(-1.42199996844e-05 -5.19500008522e-06 0.000199999994948)
(-1.42700000652e-05 -5.20999992659e-06 9.99999974738e-05)
(-1.42700000652e-05 -5.20999992659e-06 0.000199999994948)
(-1.4315000044e-05 -5.23000016983e-06 9.99999974738e-05)
(-1.4315000044e-05 -5.23000016983e-06 0.000199999994948)
(-1.43650004247e-05 -5.24999995832e-06 9.99999974738e-05)
(-1.43650004247e-05 -5.24999995832e-06 0.000199999994948)
(-1.44100004036e-05 -5.27500014869e-06 9.99999974738e-05)
(-1.44100004036e-05 -5.27500014869e-06 0.000199999994948)
(-1.44550003824e-05 -5.29499993718e-06 9.99999974738e-05)
(-1.44550003824e-05 -5.29499993718e-06 0.000199999994948)
(-1.45049998537e-05 -5.32000012754e-06 9.99999974738e-05)
(-1.45049998537e-05 -5.32000012754e-06 0.000199999994948)
(-1.45499998325e-05 -5.33999991603e-06 9.99999974738e-05)
(-1.45499998325e-05 -5.33999991603e-06 0.000199999994948)
(-1.45949998114e-05 -5.36500010639e-06 9.99999974738e-05)
(-1.45949998114e-05 -5.36500010639e-06 0.000199999994948)
(-1.46399997902e-05 -5.38999984201e-06 9.99999974738e-05)
(-1.46399997902e-05 -5.38999984201e-06 0.000199999994948)
(-1.46849997691e-05 -5.41500003237e-06 9.99999974738e-05)
(-1.46849997691e-05 -5.41500003237e-06 0.000199999994948)
(-1.47299997479e-05 -5.44500016986e-06 9.99999974738e-05)
(-1.47299997479e-05 -5.44500016986e-06 0.000199999994948)
(-1.47700002344e-05 -5.46999990547e-06 9.99999974738e-05)
(-1.47700002344e-05 -5.46999990547e-06 0.000199999994948)
(-1.48150002133e-05 -5.50000004296e-06 9.99999974738e-05)
(-1.48150002133e-05 -5.50000004296e-06 0.000199999994948)
(-1.48600001921e-05 -5.52499977857e-06 9.99999974738e-05)
(-1.48600001921e-05 -5.52499977857e-06 0.000199999994948)
(-1.48999997691e-05 -5.55499991606e-06 9.99999974738e-05)
(-1.48999997691e-05 -5.55499991606e-06 0.000199999994948)
(-1.49400002556e-05 -5.58500005354e-06 9.99999974738e-05)
(-1.49400002556e-05 -5.58500005354e-06 0.000199999994948)
(-1.49850002344e-05 -5.62000013815e-06 9.99999974738e-05)
(-1.49850002344e-05 -5.62000013815e-06 0.000199999994948)
(-1.50249998114e-05 -5.64999982089e-06 9.99999974738e-05)
(-1.50249998114e-05 -5.64999982089e-06 0.000199999994948)
(-1.50650002979e-05 -5.67999995837e-06 9.99999974738e-05)
(-1.50650002979e-05 -5.67999995837e-06 0.000199999994948)
(-1.51049998749e-05 -5.71500004298e-06 9.99999974738e-05)
(-1.51049998749e-05 -5.71500004298e-06 0.000199999994948)
(-1.51450003614e-05 -5.75000012759e-06 9.99999974738e-05)
(-1.51450003614e-05 -5.75000012759e-06 0.000199999994948)
(-1.5180000446e-05 -5.7850002122e-06 9.99999974738e-05)
(-1.5180000446e-05 -5.7850002122e-06 0.000199999994948)
(-1.5220000023e-05 -5.81999984206e-06 9.99999974738e-05)
(-1.5220000023e-05 -5.81999984206e-06 0.000199999994948)
(-1.52550001076e-05 -5.85499992667e-06 9.99999974738e-05)
(-1.52550001076e-05 -5.85499992667e-06 0.000199999994948)
(-1.52949996846e-05 -5.89000001128e-06 9.99999974738e-05)
(-1.52949996846e-05 -5.89000001128e-06 0.000199999994948)
(-1.53300006787e-05 -5.93000004301e-06 9.99999974738e-05)
(-1.53300006787e-05 -5.93000004301e-06 0.000199999994948)
(-1.53649998538e-05 -5.96500012762e-06 9.99999974738e-05)
(-1.53649998538e-05 -5.96500012762e-06 0.000199999994948)
(-1.54000008479e-05 -6.00500015935e-06 9.99999974738e-05)
(-1.54000008479e-05 -6.00500015935e-06 0.000199999994948)
(-1.5435000023e-05 -6.03999978921e-06 9.99999974738e-05)
(-1.5435000023e-05 -6.03999978921e-06 0.000199999994948)
(-1.54650006152e-05 -6.07999982094e-06 9.99999974738e-05)
(-1.54650006152e-05 -6.07999982094e-06 0.000199999994948)
(-1.54999997903e-05 -6.11999985267e-06 9.99999974738e-05)
(-1.54999997903e-05 -6.11999985267e-06 0.000199999994948)
(-1.55300003826e-05 -6.1599998844e-06 9.99999974738e-05)
(-1.55300003826e-05 -6.1599998844e-06 0.000199999994948)
(-1.55599991558e-05 -6.20499986326e-06 9.99999974738e-05)
(-1.55599991558e-05 -6.20499986326e-06 0.000199999994948)
(-1.5589999748e-05 -6.24499989499e-06 9.99999974738e-05)
(-1.5589999748e-05 -6.24499989499e-06 0.000199999994948)
(-1.56200003403e-05 -6.28499992672e-06 9.99999974738e-05)
(-1.56200003403e-05 -6.28499992672e-06 0.000199999994948)
(-1.56499991135e-05 -6.32999990557e-06 9.99999974738e-05)
(-1.56499991135e-05 -6.32999990557e-06 0.000199999994948)
(-1.56799997058e-05 -6.36999993731e-06 9.99999974738e-05)
(-1.56799997058e-05 -6.36999993731e-06 0.000199999994948)
(-1.57049998961e-05 -6.41499991616e-06 9.99999974738e-05)
(-1.57049998961e-05 -6.41499991616e-06 0.000199999994948)
(-1.57350004883e-05 -6.45999989501e-06 9.99999974738e-05)
(-1.57350004883e-05 -6.45999989501e-06 0.000199999994948)
(-1.57600006787e-05 -6.50499987387e-06 9.99999974738e-05)
(-1.57600006787e-05 -6.50499987387e-06 0.000199999994948)
(-1.57850008691e-05 -6.54999985272e-06 9.99999974738e-05)
(-1.57850008691e-05 -6.54999985272e-06 0.000199999994948)
(-1.58099992404e-05 -6.59499983158e-06 9.99999974738e-05)
(-1.58099992404e-05 -6.59499983158e-06 0.000199999994948)
(-1.58349994308e-05 -6.63999981043e-06 9.99999974738e-05)
(-1.58349994308e-05 -6.63999981043e-06 0.000199999994948)
(-3.70400011889e-05 -4.83600015286e-05 9.99999974738e-05)
(-3.70400011889e-05 -4.83600015286e-05 0.000199999994948)
(-3.70650013792e-05 -4.84049996885e-05 9.99999974738e-05)
(-3.70650013792e-05 -4.84049996885e-05 0.000199999994948)
(-3.70900015696e-05 -4.84500014863e-05 9.99999974738e-05)
(-3.70900015696e-05 -4.84500014863e-05 0.000199999994948)
(-3.711500176e-05 -4.84949996462e-05 9.99999974738e-05)
(-3.711500176e-05 -4.84949996462e-05 0.000199999994948)
(-3.71399983123e-05 -4.85400014441e-05 9.99999974738e-05)
(-3.71399983123e-05 -4.85400014441e-05 0.000199999994948)
(-3.71649985027e-05 -4.85849996039e-05 9.99999974738e-05)
(-3.71649985027e-05 -4.85849996039e-05 0.000199999994948)
(-3.71950009139e-05 -4.86300014018e-05 9.99999974738e-05)
(-3.71950009139e-05 -4.86300014018e-05 0.000199999994948)
(-3.72249996872e-05 -4.86700009787e-05 9.99999974738e-05)
(-3.72249996872e-05 -4.86700009787e-05 0.000199999994948)
(-3.72499998775e-05 -4.87149991386e-05 9.99999974738e-05)
(-3.72499998775e-05 -4.87149991386e-05 0.000199999994948)
(-3.72799986508e-05 -4.87549987156e-05 9.99999974738e-05)
(-3.72799986508e-05 -4.87549987156e-05 0.000199999994948)
(-3.7310001062e-05 -4.87949982926e-05 9.99999974738e-05)
(-3.7310001062e-05 -4.87949982926e-05 0.000199999994948)
(-3.73449984181e-05 -4.88400000904e-05 9.99999974738e-05)
(-3.73449984181e-05 -4.88400000904e-05 0.000199999994948)
(-3.73750008293e-05 -4.88799996674e-05 9.99999974738e-05)
(-3.73750008293e-05 -4.88799996674e-05 0.000199999994948)
(-3.74099981855e-05 -4.89199992444e-05 9.99999974738e-05)
(-3.74099981855e-05 -4.89199992444e-05 0.000199999994948)
(-3.74400005967e-05 -4.89599988214e-05 9.99999974738e-05)
(-3.74400005967e-05 -4.89599988214e-05 0.000199999994948)
(-3.74750015908e-05 -4.89949998155e-05 9.99999974738e-05)
(-3.74750015908e-05 -4.89949998155e-05 0.000199999994948)
(-3.75099989469e-05 -4.90349993925e-05 9.99999974738e-05)
(-3.75099989469e-05 -4.90349993925e-05 0.000199999994948)
(-3.7544999941e-05 -4.90700003866e-05 9.99999974738e-05)
(-3.7544999941e-05 -4.90700003866e-05 0.000199999994948)
(-3.75800009351e-05 -4.91099999635e-05 9.99999974738e-05)
(-3.75800009351e-05 -4.91099999635e-05 0.000199999994948)
(-3.76200005121e-05 -4.91450009577e-05 9.99999974738e-05)
(-3.76200005121e-05 -4.91450009577e-05 0.000199999994948)
(-3.76550015062e-05 -4.91799983138e-05 9.99999974738e-05)
(-3.76550015062e-05 -4.91799983138e-05 0.000199999994948)
(-3.76950010832e-05 -4.92149993079e-05 9.99999974738e-05)
(-3.76950010832e-05 -4.92149993079e-05 0.000199999994948)